LTspice 26.0.1 for Windows
Circuit: D:\ec445_neuroguard\ECU_monitor_V2\ECU_monitor_V2.net
Start Time: Sun Jan 11 08:10:19 2026
solver = Normal
Maximum thread count: 20
tnom = 27
temp = 27
method = trap
Compress1stOrder = true
Compress2ndOrder = true
WARNING: Node nc_01 is floating.

Direct Newton iteration failed to find operating point.
Starting Gmin stepping
Gmin stepping failed to find operating point. Use".option gminsteps=0" to skip all Gmin stepping.
Starting source stepping with srcstepmethod=0
Source stepping succeeded in finding the operating point.

Total elapsed time: 5.659 seconds.

Files loaded:
D:\ec445_neuroguard\ECU_monitor_V2\ECU_monitor_V2.net
C:\Users\steph\AppData\Local\LTspice\lib\cmp\standard.dio
C:\Users\steph\AppData\Local\LTspice\lib\cmp\standard.mos
D:\Downloads\slcj017\LM393A.5_1
C:\Users\steph\AppData\Local\LTspice\lib\sub\LTC1157.sub
C:\Users\steph\AppData\Local\LTspice\lib\sub\NE555.sub

